<?xml version="1.0" encoding="UTF-8"?>

<!-- generated on 2021-11-25 09:13:32 by Eclipse SUMO netedit Version 1.10.0
<configuration xmlns:xsi="http://www.w3.org/2001/XMLSchema-instance" xsi:noNamespaceSchemaLocation="http://sumo.dlr.de/xsd/netconvertConfiguration.xsd">

    <input>
        <sumo-net-file value="./network/tostmannplatz.net.xml"/>
    </input>

    <output>
        <output-file value="./network/tostmannplatz.net.xml"/>
    </output>

    <processing>
        <geometry.min-radius.fix.railways value="false"/>
        <geometry.max-grade.fix value="false"/>
        <offset.disable-normalization value="true"/>
        <lefthand value="false"/>
    </processing>

    <junctions>
        <no-internal-links value="false"/>
        <no-turnarounds value="true"/>
        <junctions.corner-detail value="5"/>
        <junctions.limit-turn-speed value="-1"/>
        <rectangular-lane-cut value="false"/>
    </junctions>

    <pedestrian>
        <walkingareas value="false"/>
    </pedestrian>

    <report>
        <aggregate-warnings value="5"/>
    </report>

</configuration>
-->

<net version="1.9" junctionCornerDetail="5" xmlns:xsi="http://www.w3.org/2001/XMLSchema-instance" xsi:noNamespaceSchemaLocation="http://sumo.dlr.de/xsd/net_file.xsd">

    <location netOffset="-604803.82,-5794825.17" convBoundary="0.00,-770.87,615.83,1055.66" origBoundary="1036887.000000,5215434.000000,1076426.000000,5239923.000000" projParameter="+proj=utm +zone=32 +ellps=WGS84 +datum=WGS84 +units=m +no_defs"/>

    <edge id=":51812159.-60_0" function="internal">
        <lane id=":51812159.-60_0_0" index="0" disallow="pedestrian rail_fast" speed="13.89" length="8.43" shape="248.32,128.05 249.23,136.00"/>
        <lane id=":51812159.-60_0_1" index="1" disallow="pedestrian rail_fast" speed="13.89" length="8.43" shape="248.32,128.05 248.12,130.56 247.19,132.23 246.26,133.89 246.06,136.40"/>
    </edge>
    <edge id=":51812159.-60_w0" function="walkingarea">
        <lane id=":51812159.-60_w0_0" index="0" allow="pedestrian" speed="1.00" length="8.00" width="2.00" shape="250.82,135.80 252.81,135.55 251.89,127.60 249.91,127.85"/>
    </edge>
    <edge id=":54536707_0" function="internal">
        <lane id=":54536707_0_0" index="0" disallow="pedestrian rail_fast" speed="8.33" length="5.37" shape="158.09,65.12 157.30,63.90 156.30,63.18 155.09,62.95 153.67,63.23"/>
    </edge>
    <edge id=":54536707_w0" function="walkingarea">
        <lane id=":54536707_w0_0" index="0" allow="pedestrian" speed="1.00" length="1.34" width="2.00" shape="154.18,64.74 154.83,66.63 154.83,66.63 156.64,65.79 156.36,65.31 156.03,64.95 155.65,64.71 155.21,64.60 154.72,64.61"/>
    </edge>
    <edge id=":54536710_0" function="internal">
        <lane id=":54536710_0_0" index="0" disallow="pedestrian rail_fast" speed="13.89" length="3.01" shape="226.75,9.71 226.43,6.72"/>
    </edge>
    <edge id=":54536710_1" function="internal">
        <lane id=":54536710_1_0" index="0" disallow="pedestrian rail_fast" speed="13.89" length="4.32" shape="229.62,6.46 233.19,8.89"/>
    </edge>
    <edge id=":54536710_w0" function="walkingarea">
        <lane id=":54536710_w0_0" index="0" allow="pedestrian" speed="1.00" length="6.91" width="3.20" shape="234.78,8.69 236.76,8.44 231.22,6.32 228.03,6.59 228.03,6.59 224.84,6.85 223.17,10.16 225.16,9.91"/>
    </edge>
    <edge id=":54536725_w0" function="walkingarea">
        <lane id=":54536725_w0_0" index="0" allow="pedestrian" speed="1.00" length="8.40" width="2.00" shape="322.90,0.52 324.87,0.85 314.61,-0.85 316.58,-0.52"/>
    </edge>
    <edge id=":54536739_w0" function="walkingarea">
        <lane id=":54536739_w0_0" index="0" allow="pedestrian" speed="1.00" length="8.40" width="2.00" shape="-0.06,307.12 -0.10,305.12 0.10,315.52 0.06,313.52"/>
    </edge>
    <edge id=":54536740_0" function="internal">
        <lane id=":54536740_0_0" index="0" disallow="pedestrian rail_fast" speed="8.33" length="5.59" shape="82.99,87.27 81.64,87.96 80.80,88.92 80.48,90.15 80.69,91.66"/>
    </edge>
    <edge id=":54536740_w0" function="walkingarea">
        <lane id=":54536740_w0_0" index="0" allow="pedestrian" speed="1.00" length="1.38" width="2.00" shape="82.23,91.23 84.15,90.68 84.15,90.68 83.51,88.79 82.97,89.02 82.57,89.33 82.29,89.70 82.14,90.14 82.12,90.65"/>
    </edge>
    <edge id=":54536744_0" function="internal">
        <lane id=":54536744_0_0" index="0" disallow="pedestrian rail_fast" speed="13.89" length="10.00" shape="117.55,309.00 114.61,309.41 112.60,309.66 110.57,309.81 107.61,309.90"/>
    </edge>
    <edge id=":54536744_1" function="internal">
        <lane id=":54536744_1_0" index="0" disallow="pedestrian rail_fast" speed="11.11" length="9.38" shape="111.00,300.64 111.46,303.21 112.63,304.93 114.52,305.80 117.13,305.83"/>
    </edge>
    <edge id=":54536744_2" function="internal">
        <lane id=":54536744_2_0" index="0" disallow="pedestrian rail_fast" speed="11.11" length="10.74" shape="111.00,300.64 110.90,304.67 110.30,307.55 109.21,309.29 107.61,309.90"/>
    </edge>
    <edge id=":54536744_3" function="internal">
        <lane id=":54536744_3_0" index="0" disallow="pedestrian rail_fast" speed="13.89" length="9.63" shape="107.55,306.70 110.40,306.61 112.35,306.47 114.30,306.22 117.13,305.83"/>
    </edge>
    <edge id=":54536744_w0" function="walkingarea">
        <lane id=":54536744_w0_0" index="0" allow="pedestrian" speed="1.00" length="10.28" width="2.00" shape="107.64,311.50 107.68,313.50 118.03,312.57 117.77,310.58 115.62,310.88 114.03,311.10 112.72,311.26 111.40,311.37 109.81,311.44"/>
    </edge>
    <edge id=":54536744_w1" function="walkingarea">
        <lane id=":54536744_w1_0" index="0" allow="pedestrian" speed="1.00" length="4.17" width="2.00" shape="116.92,304.24 116.65,302.26 114.60,300.53 112.60,300.59 112.76,301.86 113.14,302.87 113.75,303.61 114.58,304.08 115.64,304.30"/>
    </edge>
    <edge id=":54536745_0" function="internal">
        <lane id=":54536745_0_0" index="0" disallow="pedestrian rail_fast" speed="13.89" length="8.48" shape="247.42,196.87 247.52,194.34 248.37,192.64 249.25,190.94 249.43,188.39"/>
        <lane id=":54536745_0_1" index="1" disallow="pedestrian rail_fast" speed="13.89" length="8.48" shape="250.58,196.36 249.43,188.39"/>
    </edge>
    <edge id=":54536745_2" function="internal">
        <lane id=":54536745_2_0" index="0" disallow="pedestrian rail_fast" speed="13.89" length="8.42" shape="255.78,187.59 256.58,189.90 257.86,191.22 259.18,192.54 260.05,194.84"/>
        <lane id=":54536745_2_1" index="1" disallow="pedestrian rail_fast" speed="13.89" length="8.42" shape="252.60,187.99 253.41,190.33 254.70,191.68 256.01,193.02 256.89,195.35"/>
        <lane id=":54536745_2_2" index="2" disallow="pedestrian rail_fast" speed="13.89" length="8.42" shape="252.60,187.99 253.73,195.85"/>
    </edge>
    <edge id=":54536745_w0" function="walkingarea">
        <lane id=":54536745_w0_0" index="0" allow="pedestrian" speed="1.00" length="8.79" width="2.00" shape="247.84,188.60 245.86,188.85 243.86,197.44 245.84,197.12 245.78,195.29 246.17,193.96 246.79,192.87 247.41,191.78 247.84,190.44"/>
    </edge>
    <edge id=":54536745_w1" function="walkingarea">
        <lane id=":54536745_w1_0" index="0" allow="pedestrian" speed="1.00" length="8.34" width="2.00" shape="261.63,194.58 263.61,194.27 259.35,187.13 257.37,187.39 257.82,189.07 258.56,190.18 259.45,190.99 260.35,191.80 261.12,192.90"/>
    </edge>
    <edge id=":54536747_0" function="internal">
        <lane id=":54536747_0_0" index="0" disallow="pedestrian rail_fast" speed="8.33" length="3.47" shape="198.08,241.76 198.13,240.80 198.56,240.17 199.01,239.53 199.09,238.57"/>
    </edge>
    <edge id=":54536747_w0" function="walkingarea">
        <lane id=":54536747_w0_0" index="0" allow="pedestrian" speed="1.00" length="3.44" width="2.00" shape="197.52,238.84 195.55,239.19 194.56,242.52 196.52,242.09 196.49,241.39 196.68,240.88 196.99,240.47 197.31,240.06 197.52,239.55"/>
    </edge>
    <edge id=":54536750_0" function="internal">
        <lane id=":54536750_0_0" index="0" disallow="pedestrian rail_fast" speed="13.89" length="14.48" shape="219.63,291.00 205.72,295.01"/>
    </edge>
    <edge id=":54536750_1" function="internal">
        <lane id=":54536750_1_0" index="0" disallow="pedestrian rail_fast" speed="11.11" length="5.27" shape="219.63,291.00 215.86,291.38 214.49,290.82"/>
    </edge>
    <edge id=":54536750_7" function="internal">
        <lane id=":54536750_7_0" index="0" disallow="pedestrian rail_fast" speed="11.11" length="11.26" shape="214.49,290.82 212.62,290.06 209.91,287.04 207.74,282.33"/>
    </edge>
    <edge id=":54536750_2" function="internal">
        <lane id=":54536750_2_0" index="0" disallow="pedestrian rail_fast" speed="11.11" length="8.91" shape="210.76,281.29 211.87,283.46 213.40,284.77 215.37,285.25 217.77,284.88"/>
    </edge>
    <edge id=":54536750_3" function="internal">
        <lane id=":54536750_3_0" index="0" disallow="pedestrian rail_fast" speed="11.11" length="16.82" shape="210.76,281.29 211.90,286.38 211.44,290.36 209.38,293.23 205.72,295.01"/>
    </edge>
    <edge id=":54536750_4" function="internal">
        <lane id=":54536750_4_0" index="0" disallow="pedestrian rail_fast" speed="11.11" length="11.45" shape="204.87,291.92 207.16,290.74 208.40,288.75 208.59,285.95 207.74,282.33"/>
    </edge>
    <edge id=":54536750_5" function="internal">
        <lane id=":54536750_5_0" index="0" disallow="pedestrian rail_fast" speed="13.89" length="14.60" shape="204.87,291.92 208.89,290.30 211.34,288.47 213.79,286.60 217.77,284.88"/>
        <lane id=":54536750_5_1" index="1" disallow="pedestrian rail_fast" speed="13.89" length="14.60" shape="204.87,291.92 218.70,287.94"/>
    </edge>
    <edge id=":54536750_w0" function="walkingarea">
        <lane id=":54536750_w0_0" index="0" allow="pedestrian" speed="1.00" length="14.55" width="2.00" shape="206.14,296.55 206.67,298.48 220.67,294.45 220.09,292.54"/>
    </edge>
    <edge id=":54536750_w1" function="walkingarea">
        <lane id=":54536750_w1_0" index="0" allow="pedestrian" speed="1.00" length="4.27" width="2.00" shape="217.31,283.35 216.73,281.43 214.17,280.12 212.28,280.77 212.77,281.88 213.40,282.71 214.17,283.27 215.08,283.57 216.13,283.59"/>
    </edge>
    <edge id=":54536750_w2" function="walkingarea">
        <lane id=":54536750_w2_0" index="0" allow="pedestrian" speed="1.00" length="6.33" width="2.00" shape="206.22,282.85 204.33,283.50 203.92,288.45 204.45,290.38 205.61,289.86 206.42,289.06 206.89,287.95 207.01,286.55 206.79,284.85"/>
    </edge>
    <edge id=":54536752_0" function="internal">
        <lane id=":54536752_0_0" index="0" disallow="pedestrian rail_fast" speed="13.89" length="4.81" shape="253.06,238.90 252.85,237.51 253.10,236.52 253.41,235.52 253.40,234.09"/>
        <lane id=":54536752_0_1" index="1" disallow="pedestrian rail_fast" speed="13.89" length="4.81" shape="256.20,238.21 256.01,236.88 256.25,235.93 256.56,234.96 256.56,233.58"/>
    </edge>
    <edge id=":54536752_2" function="internal">
        <lane id=":54536752_2_0" index="0" disallow="pedestrian rail_fast" speed="11.11" length="4.73" shape="261.72,249.55 262.98,246.16 263.76,245.37"/>
    </edge>
    <edge id=":54536752_10" function="internal">
        <lane id=":54536752_10_0" index="0" disallow="pedestrian rail_fast" speed="11.11" length="14.60" shape="263.76,245.37 265.86,243.23 270.37,240.76 276.51,238.76"/>
    </edge>
    <edge id=":54536752_3" function="internal">
        <lane id=":54536752_3_0" index="0" disallow="pedestrian rail_fast" speed="11.11" length="14.08" shape="277.30,241.86 273.50,243.38 271.24,245.63 270.52,248.58 271.34,252.25"/>
    </edge>
    <edge id=":54536752_4" function="internal">
        <lane id=":54536752_4_0" index="0" disallow="pedestrian rail_fast" speed="11.11" length="19.28" shape="277.30,241.86 270.83,244.05 266.63,246.75 264.71,249.96 265.06,253.67"/>
    </edge>
    <edge id=":54536752_5" function="internal">
        <lane id=":54536752_5_0" index="0" disallow="pedestrian rail_fast" speed="11.11" length="21.61" shape="277.30,241.86 269.01,243.13 262.79,242.17 258.64,238.99 258.03,237.40"/>
    </edge>
    <edge id=":54536752_11" function="internal">
        <lane id=":54536752_11_0" index="0" disallow="pedestrian rail_fast" speed="11.11" length="4.09" shape="258.03,237.40 256.56,233.58"/>
    </edge>
    <edge id=":54536752_6" function="internal">
        <lane id=":54536752_6_0" index="0" disallow="pedestrian rail_fast" speed="11.11" length="10.42" shape="266.04,232.06 267.24,235.85 269.38,238.24 272.47,239.20"/>
    </edge>
    <edge id=":54536752_7" function="internal">
        <lane id=":54536752_7_0" index="0" disallow="pedestrian rail_fast" speed="13.89" length="21.06" shape="266.04,232.06 267.03,238.20 267.87,242.38 269.13,246.45 271.34,252.25"/>
        <lane id=":54536752_7_1" index="1" disallow="pedestrian rail_fast" speed="13.89" length="21.06" shape="262.88,232.57 263.87,238.76 264.71,242.99 265.96,247.10 268.18,252.96"/>
    </edge>
    <edge id=":54536752_9" function="internal">
        <lane id=":54536752_9_0" index="0" disallow="pedestrian rail_fast" speed="13.89" length="21.31" shape="259.72,233.07 261.02,240.06 262.37,245.55 263.72,249.95 265.06,253.67"/>
    </edge>
    <edge id=":54536752_12" function="internal">
        <lane id=":54536752_12_0" index="0" disallow="pedestrian rail_fast" speed="11.11" length="4.06" shape="272.47,239.20 276.51,238.76"/>
    </edge>
    <edge id=":54536752_c0" function="crossing" crossingEdges="-51812134 51812134">
        <lane id=":54536752_c0_0" index="0" allow="pedestrian" speed="1.00" length="6.40" width="4.00" shape="274.17,237.70 275.76,243.90"/>
    </edge>
    <edge id=":54536752_c1" function="crossing" crossingEdges="-51932979 51932979">
        <lane id=":54536752_c1_0" index="0" allow="pedestrian" speed="1.00" length="16.00" width="4.00" shape="252.14,236.32 267.94,233.78"/>
    </edge>
    <edge id=":54536752_w0" function="walkingarea">
        <lane id=":54536752_w0_0" index="0" allow="pedestrian" speed="1.00" length="3.58" width="4.00" shape="251.82,234.34 249.85,234.66 249.56,239.76 251.46,239.15 251.32,238.35 251.35,237.57 251.54,236.90 251.75,236.23 251.89,235.42"/>
    </edge>
    <edge id=":54536752_w1" function="walkingarea">
        <lane id=":54536752_w1_0" index="0" allow="pedestrian" speed="1.00" length="6.19" width="4.00" shape="272.98,252.04 274.84,251.31 278.19,245.35 277.70,243.41 275.51,244.16 273.87,245.16 272.79,246.42 272.25,247.92 272.27,249.67"/>
    </edge>
    <edge id=":54536752_w2" function="walkingarea">
        <lane id=":54536752_w2_0" index="0" allow="pedestrian" speed="1.00" length="6.16" width="4.00" shape="276.11,237.21 275.62,235.27 269.59,231.49 267.62,231.80 268.18,233.97 269.08,235.64 270.33,236.79 271.91,237.44 273.84,237.58"/>
    </edge>
    <edge id=":54536753_0" function="internal">
        <lane id=":54536753_0_0" index="0" disallow="pedestrian rail_fast" speed="13.89" length="15.55" shape="270.21,284.66 268.03,281.40 264.42,279.69 259.39,279.53 256.85,280.07"/>
    </edge>
    <edge id=":54536753_1" function="internal">
        <lane id=":54536753_1_0" index="0" disallow="pedestrian rail_fast" speed="13.89" length="22.58" shape="270.21,284.66 261.72,263.80"/>
        <lane id=":54536753_1_1" index="1" disallow="pedestrian rail_fast" speed="13.89" length="22.58" shape="273.24,283.60 264.70,262.64"/>
    </edge>
    <edge id=":54536753_8" function="internal">
        <lane id=":54536753_8_0" index="0" disallow="pedestrian rail_fast" speed="13.89" length="4.00" shape="256.85,280.07 252.94,280.92"/>
    </edge>
    <edge id=":54536753_3" function="internal">
        <lane id=":54536753_3_0" index="0" disallow="pedestrian rail_fast" speed="13.89" length="4.29" shape="280.94,276.57 281.21,277.79 281.09,278.69 280.95,279.60 281.17,280.83"/>
        <lane id=":54536753_3_1" index="1" disallow="pedestrian rail_fast" speed="13.89" length="4.29" shape="277.94,277.70 278.20,278.90 278.08,279.78 277.94,280.67 278.15,281.89"/>
    </edge>
    <edge id=":54536753_5" function="internal">
        <lane id=":54536753_5_0" index="0" disallow="pedestrian rail_fast" speed="13.89" length="2.44" shape="270.82,268.96 270.58,271.39"/>
    </edge>
    <edge id=":54536753_9" function="internal">
        <lane id=":54536753_9_0" index="0" disallow="pedestrian rail_fast" speed="13.89" length="20.56" shape="270.58,271.39 270.53,271.91 267.45,274.89 261.59,277.89 252.94,280.92"/>
    </edge>
    <edge id=":54536753_6" function="internal">
        <lane id=":54536753_6_0" index="0" disallow="pedestrian rail_fast" speed="13.89" length="17.33" shape="251.00,274.82 256.74,272.60 260.44,270.02 262.10,267.09 261.72,263.80"/>
    </edge>
    <edge id=":54536753_7" function="internal">
        <lane id=":54536753_7_0" index="0" disallow="pedestrian rail_fast" speed="13.89" length="24.91" shape="251.97,277.87 262.01,275.58 269.72,275.48 275.10,277.58 275.75,278.50"/>
    </edge>
    <edge id=":54536753_10" function="internal">
        <lane id=":54536753_10_0" index="0" disallow="pedestrian rail_fast" speed="13.89" length="4.15" shape="275.75,278.50 278.15,281.89"/>
    </edge>
    <edge id=":54536753_c0" function="crossing" crossingEdges="786367652 -786367651">
        <lane id=":54536753_c0_0" index="0" allow="pedestrian" speed="1.00" length="14.84" width="4.00" shape="282.03,278.42 268.02,283.33"/>
    </edge>
    <edge id=":54536753_c1" function="crossing" crossingEdges="51812052 -51812052">
        <lane id=":54536753_c1_0" index="0" allow="pedestrian" speed="1.00" length="9.60" width="4.00" shape="255.32,281.87 252.46,272.71"/>
    </edge>
    <edge id=":54536753_w0" function="walkingarea">
        <lane id=":54536753_w0_0" index="0" allow="pedestrian" speed="1.00" length="9.78" width="4.00" shape="253.43,282.44 254.01,284.35 266.82,285.86 268.70,285.17 267.61,283.28 265.93,281.94 263.67,281.19 260.82,281.02 257.40,281.44"/>
    </edge>
    <edge id=":54536753_w1" function="walkingarea">
        <lane id=":54536753_w1_0" index="0" allow="pedestrian" speed="1.00" length="3.21" width="4.00" shape="282.68,280.30 284.57,279.64 284.30,275.29 282.44,276.03 282.67,276.86 282.69,277.55 282.59,278.13 282.48,278.72 282.47,279.41"/>
    </edge>
    <edge id=":54536753_w2" function="walkingarea">
        <lane id=":54536753_w2_0" index="0" allow="pedestrian" speed="1.00" length="8.20" width="4.00" shape="260.22,264.37 258.37,265.12 249.93,271.38 250.51,273.30 254.10,272.04 256.88,270.71 258.88,269.27 260.11,267.74 260.56,266.12"/>
    </edge>
    <edge id=":54536771_0" function="internal">
        <lane id=":54536771_0_0" index="0" disallow="pedestrian rail_fast" speed="13.89" length="0.38" shape="286.53,329.10 286.46,328.95 286.41,328.84 286.36,328.73 286.31,328.57"/>
        <lane id=":54536771_0_1" index="1" disallow="pedestrian rail_fast" speed="13.89" length="0.38" shape="289.39,327.65 289.36,327.60 289.34,327.56 289.33,327.52 289.31,327.47"/>
    </edge>
    <edge id=":54536771_w0" function="walkingarea">
        <lane id=":54536771_w0_0" index="0" allow="pedestrian" speed="1.00" length="0.88" width="2.00" shape="284.80,329.12 282.93,329.81 283.33,330.73 285.11,329.82 285.03,329.68 284.98,329.57 284.94,329.48 284.90,329.39 284.86,329.28"/>
    </edge>
    <edge id=":54536772_0" function="internal">
        <lane id=":54536772_0_0" index="0" disallow="pedestrian rail_fast" speed="13.89" length="1.28" shape="296.37,324.34 296.45,324.59 296.52,324.75 296.61,324.91 296.75,325.13"/>
        <lane id=":54536772_0_1" index="1" disallow="pedestrian rail_fast" speed="13.89" length="1.28" shape="293.34,325.39 293.51,325.86 293.64,326.17 293.81,326.47 294.08,326.88"/>
    </edge>
    <edge id=":54536772_w0" function="walkingarea">
        <lane id=":54536772_w0_0" index="0" allow="pedestrian" speed="1.00" length="0.24" width="2.00" shape="298.09,324.25 299.76,323.15 299.76,323.15 297.88,323.81 297.91,323.91 297.94,323.98 297.96,324.04 297.99,324.10 298.04,324.16"/>
    </edge>
    <edge id=":54536773_0" function="internal">
        <lane id=":54536773_0_0" index="0" disallow="pedestrian rail_fast" speed="8.33" length="14.68" shape="379.88,215.32 365.74,219.25"/>
    </edge>
    <edge id=":54536773_1" function="internal">
        <lane id=":54536773_1_0" index="0" disallow="pedestrian rail_fast" speed="8.33" length="14.35" shape="379.88,215.32 376.00,215.90 372.88,215.08 370.51,212.87 368.91,209.26"/>
    </edge>
    <edge id=":54536773_2" function="internal">
        <lane id=":54536773_2_0" index="0" disallow="pedestrian rail_fast" speed="8.33" length="9.13" shape="371.99,208.39 373.01,210.69 374.51,212.10 376.50,212.62 378.96,212.25"/>
    </edge>
    <edge id=":54536773_3" function="internal">
        <lane id=":54536773_3_0" index="0" disallow="pedestrian rail_fast" speed="8.33" length="14.38" shape="371.99,208.39 372.52,212.30 371.65,215.42 369.39,217.73 365.74,219.25"/>
    </edge>
    <edge id=":54536773_4" function="internal">
        <lane id=":54536773_4_0" index="0" disallow="pedestrian rail_fast" speed="8.33" length="9.12" shape="364.95,216.15 367.26,215.19 368.70,213.72 369.24,211.74 368.91,209.26"/>
    </edge>
    <edge id=":54536773_5" function="internal">
        <lane id=":54536773_5_0" index="0" disallow="pedestrian rail_fast" speed="8.33" length="14.55" shape="364.95,216.15 378.96,212.25"/>
    </edge>
    <edge id=":54536773_w0" function="walkingarea">
        <lane id=":54536773_w0_0" index="0" allow="pedestrian" speed="1.00" length="14.79" width="2.00" shape="366.14,220.80 366.63,222.74 380.92,218.76 380.35,216.85"/>
    </edge>
    <edge id=":54536773_w1" function="walkingarea">
        <lane id=":54536773_w1_0" index="0" allow="pedestrian" speed="1.00" length="4.27" width="2.00" shape="378.50,210.72 377.93,208.80 375.45,207.40 373.53,207.95 373.98,209.12 374.58,210.00 375.33,210.61 376.23,210.93 377.29,210.96"/>
    </edge>
    <edge id=":54536773_w2" function="walkingarea">
        <lane id=":54536773_w2_0" index="0" allow="pedestrian" speed="1.00" length="4.22" width="2.00" shape="367.37,209.69 365.45,210.24 364.05,212.66 364.55,214.60 365.72,214.18 366.61,213.61 367.22,212.87 367.55,211.97 367.60,210.91"/>
    </edge>
    <edge id=":54536792_w0" function="walkingarea">
        <lane id=":54536792_w0_0" index="0" allow="pedestrian" speed="1.00" length="8.40" width="2.00" shape="466.75,190.88 467.33,192.80 464.33,182.84 464.91,184.76"/>
    </edge>
    <edge id=":644617974_0" function="internal">
        <lane id=":644617974_0_0" index="0" disallow="pedestrian rail_fast" speed="13.89" length="8.14" shape="318.68,358.54 319.78,360.66 320.21,362.29 320.67,363.89 321.85,365.95"/>
        <lane id=":644617974_0_1" index="1" disallow="pedestrian rail_fast" speed="13.89" length="8.14" shape="316.01,360.30 317.53,362.15 318.87,363.16 320.25,364.16 321.85,365.95"/>
    </edge>
    <edge id=":644617974_w0" function="walkingarea">
        <lane id=":644617974_w0_0" index="0" allow="pedestrian" speed="1.00" length="7.93" width="2.00" shape="323.15,365.01 324.77,363.83 321.69,356.57 320.02,357.67 320.85,359.14 321.28,360.33 321.53,361.38 321.78,362.41 322.25,363.57"/>
    </edge>
    <edge id=":gneJ1_0" function="internal">
        <lane id=":gneJ1_0_0" index="0" disallow="pedestrian rail_fast" speed="13.89" length="6.28" shape="379.39,473.49 380.37,468.58"/>
        <lane id=":gneJ1_0_1" index="1" disallow="pedestrian rail_fast" speed="13.89" length="6.28" shape="379.39,473.49 383.10,466.91"/>
    </edge>
    <edge id=":gneJ1_w0" function="walkingarea">
        <lane id=":gneJ1_w0_0" index="0" allow="pedestrian" speed="1.00" length="3.77" width="3.20" shape="379.00,469.41 377.30,470.45 377.82,473.21 380.97,473.76"/>
    </edge>
    <edge id=":gneJ11_w0" function="walkingarea">
        <lane id=":gneJ11_w0_0" index="0" allow="pedestrian" speed="1.00" length="3.20" width="3.20" shape="164.39,-770.87 167.58,-771.13 161.20,-770.61 164.39,-770.87"/>
    </edge>
    <edge id=":gneJ3_0" function="internal">
        <lane id=":gneJ3_0_0" index="0" disallow="pedestrian rail_fast" speed="13.89" length="0.99" shape="259.28,257.75 258.87,256.87"/>
        <lane id=":gneJ3_0_1" index="1" disallow="pedestrian rail_fast" speed="13.89" length="0.99" shape="262.24,256.55 261.83,255.63"/>
    </edge>
    <edge id=":gneJ3_2" function="internal">
        <lane id=":gneJ3_2_0" index="0" disallow="pedestrian rail_fast" speed="13.89" length="1.02" shape="262.24,256.55 261.72,255.68"/>
    </edge>
    <edge id=":gneJ3_w0" function="walkingarea">
        <lane id=":gneJ3_w0_0" index="0" allow="pedestrian" speed="1.00" length="0.93" width="2.00" shape="257.42,257.57 255.51,258.19 255.94,259.10 257.79,258.35"/>
    </edge>
    <edge id=":gneJ6_0" function="internal">
        <lane id=":gneJ6_0_0" index="0" speed="13.89" length="2.70" shape="285.05,1020.78 284.33,1020.59 283.86,1020.22 283.63,1019.66 283.65,1018.91"/>
    </edge>

    <edge id="-51811895a" from="54536753" to="gneJ3" priority="-2">
        <lane id="-51811895a_0" index="0" allow="pedestrian" speed="13.89" length="6.53" width="2.00" shape="259.30,264.74 256.87,258.72"/>
        <lane id="-51811895a_1" index="1" disallow="pedestrian rail_fast" speed="13.89" length="6.53" shape="261.72,263.80 259.28,257.75"/>
        <lane id="-51811895a_2" index="2" disallow="pedestrian rail_fast" speed="13.89" length="6.53" shape="264.70,262.64 262.24,256.55"/>
    </edge>
    <edge id="-51811895b" from="gneJ3" to="54536752" priority="-2">
        <lane id="-51811895b_0" index="0" allow="pedestrian" speed="13.89" length="18.86" width="2.00" shape="256.46,257.88 250.51,239.46"/>
        <lane id="-51811895b_1" index="1" disallow="pedestrian rail_fast" speed="13.89" length="18.86" shape="258.87,256.87 253.06,238.90"/>
        <lane id="-51811895b_2" index="2" disallow="pedestrian rail_fast" speed="13.89" length="18.86" shape="261.83,255.63 256.20,238.21"/>
    </edge>
    <edge id="-51811895c" from="gneJ3" to="54536752" priority="-5" shape="263.17,254.57 262.92,252.86 263.32,249.62">
        <lane id="-51811895c_0" index="0" disallow="pedestrian rail_fast" speed="13.89" length="6.18" shape="261.72,255.68 261.31,252.88 261.72,249.55"/>
    </edge>
    <edge id="-51812052" from="54536750" to="54536753" priority="-3">
        <lane id="-51812052_0" index="0" allow="pedestrian" speed="13.89" length="34.72" width="2.00" shape="217.02,282.39 250.22,272.34"/>
        <lane id="-51812052_1" index="1" disallow="pedestrian rail_fast" speed="13.89" length="34.72" shape="217.77,284.88 251.00,274.82"/>
        <lane id="-51812052_2" index="2" disallow="pedestrian rail_fast" speed="13.89" length="34.72" shape="218.70,287.94 251.97,277.87"/>
    </edge>
    <edge id="-51812053" from="54536744" to="54536750" priority="-3" shape="111.25,308.23 189.93,297.67 212.57,291.47">
        <lane id="-51812053_0" index="0" allow="pedestrian" speed="13.89" length="88.78" width="2.00" shape="116.78,303.25 189.09,293.54 204.19,289.41"/>
        <lane id="-51812053_1" index="1" disallow="pedestrian rail_fast" speed="13.89" length="88.78" shape="117.13,305.83 189.61,296.10 204.87,291.92"/>
    </edge>
    <edge id="-51812054" from="54536739" to="54536744" priority="-3">
        <lane id="-51812054_0" index="0" allow="pedestrian" speed="13.89" length="107.60" width="2.00" shape="-0.08,306.12 107.50,304.10"/>
        <lane id="-51812054_1" index="1" disallow="pedestrian rail_fast" speed="13.89" length="107.60" shape="-0.03,308.72 107.55,306.70"/>
    </edge>
    <edge id="-51812057" from="54536750" to="54536747" priority="-4" shape="212.57,291.47 206.79,274.66 199.34,240.01">
        <lane id="-51812057_0" index="0" allow="pedestrian" speed="8.33" length="41.91" width="2.00" shape="205.28,283.18 202.74,275.79 195.54,242.31"/>
        <lane id="-51812057_1" index="1" disallow="pedestrian rail_fast" speed="8.33" length="41.91" shape="207.74,282.33 205.25,275.09 198.08,241.76"/>
    </edge>
    <edge id="-51812058" from="54536747" to="54536707" priority="-4" spreadType="center" shape="198.36,240.18 174.03,101.82 155.82,62.60">
        <lane id="-51812058_0" index="0" allow="pedestrian" speed="8.33" length="178.94" width="2.00" shape="196.53,239.02 172.49,102.30 155.73,66.21"/>
        <lane id="-51812058_1" index="1" disallow="pedestrian rail_fast" speed="8.33" length="178.94" shape="199.09,238.57 174.99,101.52 158.09,65.12"/>
    </edge>
    <edge id="-51812134" from="54536752" to="54536773" priority="-4">
        <lane id="-51812134_0" index="0" allow="pedestrian" speed="8.33" length="91.28" width="2.00" shape="275.86,236.24 364.30,213.63"/>
        <lane id="-51812134_1" index="1" disallow="pedestrian rail_fast" speed="8.33" length="91.28" shape="276.51,238.76 364.95,216.15"/>
    </edge>
    <edge id="-51812135" from="54536773" to="54536792" priority="-4">
        <lane id="-51812135_0" index="0" allow="pedestrian" speed="8.33" length="90.22" width="2.00" shape="378.22,209.76 464.62,183.80"/>
        <lane id="-51812135_1" index="1" disallow="pedestrian rail_fast" speed="8.33" length="90.22" shape="378.96,212.25 465.37,186.29"/>
    </edge>
    <edge id="-51812140" from="54536773" to="54536725" priority="-4" shape="372.45,215.88 316.61,18.85 319.74,0.00">
        <lane id="-51812140_0" index="0" allow="pedestrian" speed="8.33" length="217.86" width="2.00" shape="366.41,209.97 312.31,19.09 315.60,-0.69"/>