<?xml version="1.0" encoding="UTF-8"?>

<additional>
	<vType id="firecar" accel="2.0" decel="5.0" tau="3.0" sigma="0.5" length="4.5" minGap="1.5" maxSpeed="50" guiShape="firebrigade" vClass="emergency" />
</additional>